LAMMPS (3 Mar 2020)
#----------Define variables from in.param-------------

jump in.param start

variable tStep equal 1000 #Timesteps. Default: 1000. Must have tStep > pDamp and tStep > tDamp.
variable dFile string lammps.dat #Structure data file to read.Default: lammps.dat
variable sRate equal 1000 #Sampling (dump/restart) rate. Default: 10.
variable pot string adp #Potential style. Default: adp.
variable cellX equal 1 #Supercell multiplier x-axis. Default 1.
variable cellY equal 1 #Supercell multiplier y-axis. Default 1.
variable cellZ equal 1 #Supercell multiplier z-axis. Default 1.
variable tDamp equal 100*dt #temp damping. Default: 100. Don't remove *dt.
variable pDamp equal 1000*dt #temp damping. Default: 1000. Don't remove *dt.

jump in.base setup

tStep is 1000

#----------- Set Up Directories -----------------------
variable pathName string adp1000
creating adp1000 and subfolders...
shell mkdir adp1000
shell mkdir adp1000/log_files
shell mkdir adp1000/restart_files
shell mkdir adp1000/dump_files
shell mkdir adp1000/post_process

#------------Copy log file to correct directory---------
Log file located in adp1000/log_files/log.lammps.
shell mv log.lammps adp1000/log_files/log.lammps
log adp1000/log_files/log.lammps append

# ---------- Initialize Simulation ---------------------
clear
units metal
dimension 3
boundary p p p
atom_style atomic
atom_modify map array
neighbor 2.0 bin
neigh_modify every 1 delay 0 check yes

# ---------- Create Atoms ------------------------------
#variable dataFile string lammps.dat
read_data lammps.dat
  orthogonal box = (0 0 0) to (8.85 15.3286 14.058)
  reading atoms ...
  108 atoms
replicate 1 1 1
  orthogonal box = (0 0 0) to (8.85 15.3286 14.058)
  108 atoms
  replicate CPU = 0.000510003 secs

variable atomMult equal 1*1*1

# ---------- Define Interatomic Potential --------------
pair_style eam/fs
pair_coeff * * Ti2.eam.fs Ti

# ---------- Define Settings ---------------------------
compute apE all pe/atom
compute eatoms all reduce sum c_apE
variable nRuns loop 100 #increment with each command that runs for tSteps. nRuns starts at 1, so skip first run cmd.

# ---------- Run Minimization --------------------------
reset_timestep 0
thermo 1000
thermo_style custom step pe lx ly lz press pxx pyy pzz c_eatoms

min_style sd
minimize 1e-16 1e-16 10000 10000
  update every 1 steps, delay 0 steps, check yes
Step PotEng Lx Ly Lz Press Pxx Pyy Pzz c_eatoms
0   -566.61698         8.85    15.328649       14.058    1906.1887    964.06549    964.11287    3790.3877   -566.61698
Loop time of 0.0130279 on 1 procs for 34 steps with 108 atoms

Minimization stats:
  Stopping criterion = energy tolerance
  Energy initial, next-to-last, final =
  Force two-norm initial, final = 4.84296e-06 2.43261e-13
  Force max component initial, final = 6.02155e-07 3.87329e-14
  Final line search alpha, max atom move = 1 3.87329e-14
  Iterations, force evaluations = 34 68

#-------Writing Dumps/Restarts--------------------------
reset_timestep 0

dump difDump all custom 1000 adp1000/dump_files/difDump.txt id x y z vx vy vz
dump_modify difDump sort id #pbc yes

dump refDump all custom 1000 adp1000/dump_files/refDump.txt id x y z vx vy vz fx fy fz c_apE
dump_modify refDump sort id #pbc yes

restart 1000 adp1000/restart_files/ref.restart.*

velocity all create 300.0 8675309 rot yes dist gaussian

write_restart adp1000/restart_files/ref.restart.0
#--------------------------------------------------------
#initial mixing
fix 1 all nvt temp 500 500 0.1
run 1000
Step PotEng Lx Ly Lz Press Pxx Pyy Pzz c_eatoms
0   -566.61698         8.85    15.328649       14.058    4230.0921    3313.3676    3344.0353    6032.8735   -566.61698
Loop time of 0.242829 on 1 procs for 1000 steps with 108 atoms

unfix 1
#nRuns starts at 1 so don't increment this time.

fix 1 all npt temp 500 500 0.1 iso 0 0 1
run 1000
Step PotEng Lx Ly Lz Press Pxx Pyy Pzz c_eatoms
1000   -560.43766         8.85    15.328649       14.058    12868.204    14024.108    11343.134     13237.37   -560.43766
Loop time of 0.245599 on 1 procs for 1000 steps with 108 atoms

unfix 1
next nRuns

#cooling
fix 1 all npt temp 500 300 0.1 iso 0 0 1
run 1000
Step PotEng Lx Ly Lz Press Pxx Pyy Pzz c_eatoms
2000   -558.81215    8.8737434    15.369774    14.095716    10775.678    11544.968    9049.6371     11732.43   -558.81215
Loop time of 0.232267 on 1 procs for 1000 steps with 108 atoms

unfix 1
next nRuns

#final relax
fix 1 all npt temp 300 300 0.1 iso 0 0 1
run 1000
Step PotEng Lx Ly Lz Press Pxx Pyy Pzz c_eatoms
3000   -562.27283    8.8616145    15.348766    14.076449    5374.3156    7940.1337    2322.3537    5860.4596   -562.27283
Loop time of 0.228777 on 1 procs for 1000 steps with 108 atoms

unfix 1
next nRuns

variable natoms equal "count(all)"
variable teng equal "c_eatoms"
variable length equal "lx"
variable ecoh equal "v_teng/v_natoms"

Total energy (eV) = -563.036615901164;
Number of atoms = 108;
Lattice constant (Angstroms) = 8.86955282158699;
Cohesive energy (eV) = -5.21330199908485;

#----------------Jump to potential script--------------
Reference calculations complete. Ran 4 steps. Beginning ADP calculations.

jump in.pot
#--Label cmd to access script from other scripts-----
label startADP

clear

#Debug step. Checking tStep var migrated from in.eam
Initial value of tStep is: 1000.
Initial value of pathName is: adp1000.

# ---------- Create Atoms ------------------------------
#Lammps loop cmd starts from 1. Need to capture timestep 0 prior to starting loop.
read_restart adp1000/restart_files/ref.restart.0
  restoring atom style atomic from restart
  orthogonal box = (0 0 0) to (8.85 15.3286 14.058)
  pair style eam/fs stores no restart info
  108 atoms
  read_restart CPU = 0.000199226 secs

neighbor 2.0 bin
neigh_modify every 1 delay 0 check yes

# ---------- Define Interatomic Potential ---------------------
pair_style adp
pair_coeff * * Ti.adp Ti

compute apE all pe/atom

dump difDump0 all custom 1 adp1000/dump_files/adpdifDump.txt id x y z vx vy vz
dump_modify difDump0 sort id

dump Dump0 all custom 1 adp1000/dump_files/adpDump.txt id x y z vx vy vz fx fy fz c_apE
dump_modify Dump0 sort id #pbc yes

run 0
  update every 1 steps, delay 0 steps, check yes
Step Temp E_pair E_mol TotEng Press
0          300   -536.45865            0    -532.3094    222794.18
Loop time of 5.51e-07 on 1 procs for 0 steps with 108 atoms

clear

#Begin loop
#--------------------------------------------------
label       loop

variable    loopEnd equal (1000/1000)*4
variable    loopExit equal 1000*4
variable    a loop 4

variable    aScaled equal 1*1000

timestep = 1000

# ---------- Create Atoms ------------------------------
read_restart adp1000/restart_files/ref.restart.1000
  restoring atom style atomic from restart
  orthogonal box = (0 0 0) to (8.85 15.3286 14.058)
  pair style eam/fs stores no restart info
  108 atoms
  read_restart CPU = 0.000102706 secs

Reading from restart file ref.restart.1000

neighbor 2.0 bin
neigh_modify every 1 delay 0 check yes

# ---------- Define Interatomic Potential ---------------------
pair_style adp
pair_coeff * * Ti.adp Ti

compute apE all pe/atom

#Create additional dump file containing only pos/vel data only if using adp potential
dump difDumploop all custom 1 adp1000/dump_files/adpdifDumploop.1000.txt id x y z vx vy vz
dump_modify difDumploop sort id

dump Dumploop all custom 1 adp1000/dump_files/adpDumploop.1000.txt id x y z vx vy vz fx fy fz c_apE
dump_modify Dumploop sort id #pbc yes

run 0
Unused restart file global fix info:
  fix style: nvt, fix ID: 1
  update every 1 steps, delay 0 steps, check yes
Step Temp E_pair E_mol TotEng Press
1000    465.84343   -550.25831            0    -543.8153    302384.51
Loop time of 5.16e-07 on 1 procs for 0 steps with 108 atoms

#append adpDump.txt with current snapshot of adpDumploop.txt
shell cat adp1000/dump_files/adpDumploop.1000.txt >> adp1000/dump_files/adpDump.txt

shell cat adp1000/dump_files/adpdifDumploop.1000.txt >> adp1000/dump_files/adpdifDump.txt

#delete intermediate adp dump file
shell rm adp1000/dump_files/adpDumploop.1000.txt

shell rm adp1000/dump_files/adpdifDumploop.1000.txt

clear

next        a
jump        SELF loop

variable    loopEnd equal (1000/1000)*4
variable    loopExit equal 1000*4
variable    a loop 4

variable    aScaled equal 2*1000

timestep = 2000

# ---------- Create Atoms ------------------------------
read_restart adp1000/restart_files/ref.restart.2000
  restoring atom style atomic from restart
  orthogonal box = (-0.0118717 -0.0205624 -0.0188579) to (8.86187 15.3492 14.0769)
  pair style eam/fs stores no restart info
  108 atoms
  read_restart CPU = 9.1782e-05 secs

Reading from restart file ref.restart.2000

neighbor 2.0 bin
neigh_modify every 1 delay 0 check yes

# ---------- Define Interatomic Potential ---------------------
pair_style adp
pair_coeff * * Ti.adp Ti

compute apE all pe/atom

#Create additional dump file containing only pos/vel data only if using adp potential
dump difDumploop all custom 1 adp1000/dump_files/adpdifDumploop.2000.txt id x y z vx vy vz
dump_modify difDumploop sort id

dump Dumploop all custom 1 adp1000/dump_files/adpDumploop.2000.txt id x y z vx vy vz fx fy fz c_apE
dump_modify Dumploop sort id #pbc yes

run 0
Unused restart file global fix info:
  fix style: npt, fix ID: 1
  update every 1 steps, delay 0 steps, check yes
Step Temp E_pair E_mol TotEng Press
2000    463.32834   -548.54973            0   -542.14151     293688.9
Loop time of 5.01e-07 on 1 procs for 0 steps with 108 atoms

#append adpDump.txt with current snapshot of adpDumploop.txt
shell cat adp1000/dump_files/adpDumploop.2000.txt >> adp1000/dump_files/adpDump.txt

shell cat adp1000/dump_files/adpdifDumploop.2000.txt >> adp1000/dump_files/adpdifDump.txt

#delete intermediate adp dump file
shell rm adp1000/dump_files/adpDumploop.2000.txt

shell rm adp1000/dump_files/adpdifDumploop.2000.txt

clear

next        a
jump        SELF loop

variable    loopEnd equal (1000/1000)*4
variable    loopExit equal 1000*4
variable    a loop 4

variable    aScaled equal 3*1000

timestep = 3000

# ---------- Create Atoms ------------------------------
read_restart adp1000/restart_files/ref.restart.3000
  restoring atom style atomic from restart
  orthogonal box = (-0.00580726 -0.0100585 -0.00922469) to (8.85581 15.3387 14.0672)
  pair style eam/fs stores no restart info
  108 atoms
  read_restart CPU = 0.000135656 secs

Reading from restart file ref.restart.3000

neighbor 2.0 bin
neigh_modify every 1 delay 0 check yes

# ---------- Define Interatomic Potential ---------------------
pair_style adp
pair_coeff * * Ti.adp Ti

compute apE all pe/atom

#Create additional dump file containing only pos/vel data only if using adp potential
dump difDumploop all custom 1 adp1000/dump_files/adpdifDumploop.3000.txt id x y z vx vy vz
dump_modify difDumploop sort id

dump Dumploop all custom 1 adp1000/dump_files/adpDumploop.3000.txt id x y z vx vy vz fx fy fz c_apE
dump_modify Dumploop sort id #pbc yes

run 0
Unused restart file global fix info:
  fix style: npt, fix ID: 1
  update every 1 steps, delay 0 steps, check yes
Step Temp E_pair E_mol TotEng Press
3000    316.95523   -551.49264            0   -547.10889     278786.6
Loop time of 5.17e-07 on 1 procs for 0 steps with 108 atoms

#append adpDump.txt with current snapshot of adpDumploop.txt
shell cat adp1000/dump_files/adpDumploop.3000.txt >> adp1000/dump_files/adpDump.txt

shell cat adp1000/dump_files/adpdifDumploop.3000.txt >> adp1000/dump_files/adpdifDump.txt

#delete intermediate adp dump file
shell rm adp1000/dump_files/adpDumploop.3000.txt

shell rm adp1000/dump_files/adpdifDumploop.3000.txt

clear

next        a
jump        SELF loop

variable    loopEnd equal (1000/1000)*4
variable    loopExit equal 1000*4
variable    a loop 4

variable    aScaled equal 4*1000

timestep = 4000

# ---------- Create Atoms ------------------------------
read_restart adp1000/restart_files/ref.restart.4000
  restoring atom style atomic from restart
  orthogonal box = (-0.00977641 -0.0169332 -0.0155296) to (8.85978 15.3456 14.0735)
  pair style eam/fs stores no restart info
  108 atoms
  read_restart CPU = 9.4451e-05 secs

Reading from restart file ref.restart.4000

neighbor 2.0 bin
neigh_modify every 1 delay 0 check yes

# ---------- Define Interatomic Potential ---------------------
pair_style adp
pair_coeff * * Ti.adp Ti

compute apE all pe/atom

#Create additional dump file containing only pos/vel data only if using adp potential
dump difDumploop all custom 1 adp1000/dump_files/adpdifDumploop.4000.txt id x y z vx vy vz
dump_modify difDumploop sort id

dump Dumploop all custom 1 adp1000/dump_files/adpDumploop.4000.txt id x y z vx vy vz fx fy fz c_apE
dump_modify Dumploop sort id #pbc yes

run 0
Unused restart file global fix info:
  fix style: npt, fix ID: 1
  update every 1 steps, delay 0 steps, check yes
Step Temp E_pair E_mol TotEng Press
4000    291.21956   -552.92675            0   -548.89894    266347.39
Loop time of 6.63e-07 on 1 procs for 0 steps with 108 atoms

#append adpDump.txt with current snapshot of adpDumploop.txt
shell cat adp1000/dump_files/adpDumploop.4000.txt >> adp1000/dump_files/adpDump.txt

shell cat adp1000/dump_files/adpdifDumploop.4000.txt >> adp1000/dump_files/adpdifDump.txt

#delete intermediate adp dump file
shell rm adp1000/dump_files/adpDumploop.4000.txt

shell rm adp1000/dump_files/adpdifDumploop.4000.txt

clear

next        a
jump        SELF loop
label       break
variable    a delete

#----------Call Python script to compare Dump files---------
print "jumping back to main script"
jumping back to main script
jump in.base compareData

variable refDump string adp1000/dump_files/refDump.txt
variable potDump string adp1000/dump_files/adpDump.txt

refDump location: adp1000/dump_files/refDump.txt
potDump location: adp1000/dump_files/adpDump.txt
atom multiplier: 1

#No good way to embedd a shell if within a Lammps if, so using a one-line shell if statement.
shell if cmp -s -- adp1000/dump_files/refDump.txt adp1000/dump_files/adpDump.txt; then echo adp1000/dump_files/refDump.txt " and " adp1000/dump_files/adpDump.txt " contain identical data, which is unexpected." ; else echo adp1000/dump_files/refDump.txt " and " adp1000/dump_files/adpDump.txt " differ, which is expected." ; fi

shell which python3
shell python3 --version
shell python3 eval.py adp1000/dump_files/refDump.txt adp1000/dump_files/adpDump.txt lammps.dat 1

#python compDump input 2 v_refDump v_potDump return v_evalDec format sss file eval.py
#python compDump return v_evalDec format s file eval.py

#print evalDec

#if pot== adp then
#print "apd position and veolicty data matches refDump data"
#elif pot = eam
#print "eamDump.txt matches ref.txt"

#print "All done!"
