LAMMPS (3 Mar 2020)
#----------Define variables from in.param-------------

jump in.param start

variable tStep equal 1000 #Timesteps. Default: 1000. Must have tStep > pDamp and tStep > tDamp.
variable dFile string lammps.dat #Structure data file to read.Default: lammps.dat
variable sRate equal 100 #Sampling (dump/restart) rate. Default: 10.
variable pot string adp #Potential style. Default: adp.
variable cellX equal 1 #Supercell multiplier x-axis. Default 1.
variable cellY equal 1 #Supercell multiplier y-axis. Default 1.
variable cellZ equal 1 #Supercell multiplier z-axis. Default 1.
variable tDamp equal 100*dt #temp damping. Default: 100. Don't remove *dt.
variable pDamp equal 1000*dt #temp damping. Default: 1000. Don't remove *dt.

jump in.base setup

tStep is 1000

#----------- Set Up Directories -----------------------
variable pathName string ecoh1000
creating ecoh1000 and subfolders...
shell mkdir ecoh1000
shell mkdir ecoh1000/log_files
shell mkdir ecoh1000/restart_files
shell mkdir ecoh1000/dump_files
shell mkdir ecoh1000/post_process

#------------Copy log file to correct directory---------
Log file located in ecoh1000/log_files/log.lammps.
shell mv log.lammps ecoh1000/log_files/log.lammps
log ecoh1000/log_files/log.lammps append

# ---------- Initialize Simulation ---------------------
clear
units metal
dimension 3
boundary p p p
atom_style atomic
atom_modify map array
neighbor 2.0 bin
neigh_modify every 1 delay 0 check yes

# ---------- Create Atoms ------------------------------
#variable dataFile string lammps.dat
read_data lammps.dat
  orthogonal box = (0 0 0) to (8.85 15.3286 14.058)
  reading atoms ...
  108 atoms
replicate 1 1 1
  orthogonal box = (0 0 0) to (8.85 15.3286 14.058)
  108 atoms
  replicate CPU = 0.000245169 secs

# ---------- Define Interatomic Potential --------------
pair_style eam/fs
pair_coeff * * Ti2.eam.fs Ti

# ---------- Define Settings ---------------------------
compute apE all pe/atom
compute eatoms all reduce sum c_apE
variable nRuns loop 100 #increment with each command that runs for tSteps. nRuns starts at 1, so skip first run cmd.

# ---------- Run Minimization --------------------------
reset_timestep 0
thermo 100
thermo_style custom step pe lx ly lz press pxx pyy pzz c_eatoms

min_style sd
minimize 1e-16 1e-16 10000 10000
  update every 1 steps, delay 0 steps, check yes
Step PotEng Lx Ly Lz Press Pxx Pyy Pzz c_eatoms
0   -566.61698         8.85    15.328649       14.058    1906.1887    964.06549    964.11287    3790.3877   -566.61698
Loop time of 0.0126369 on 1 procs for 34 steps with 108 atoms

Minimization stats:
  Stopping criterion = energy tolerance
  Energy initial, next-to-last, final =
  Force two-norm initial, final = 4.84296e-06 2.43261e-13
  Force max component initial, final = 6.02155e-07 3.87329e-14
  Final line search alpha, max atom move = 1 3.87329e-14
  Iterations, force evaluations = 34 68

#-------Writing Dumps/Restarts--------------------------
reset_timestep 0

dump refDump all custom 100 ecoh1000/dump_files/refDump.txt id x y z vx vy vz fx fy fz c_apE
dump_modify refDump sort id #pbc yes

restart 100 ecoh1000/restart_files/ref.restart.*

velocity all create 300.0 8675309 rot yes dist gaussian

write_restart ecoh1000/restart_files/ref.restart.0
#--------------------------------------------------------
#initial mixing
fix 1 all nvt temp 500 500 0.1
run 1000
Step PotEng Lx Ly Lz Press Pxx Pyy Pzz c_eatoms
0   -566.61698         8.85    15.328649       14.058    4230.0921    3313.3676    3344.0353    6032.8735   -566.61698
Averages over the last 6 of 11 rows, steps 500 to 1000:
PotEng Lx Ly Lz Press Pxx Pyy Pzz c_eatoms
-559.659 8.85 15.3286 14.058 15539.5 15339.3 14738.4 16540.7 -559.659
Loop time of 0.312912 on 1 procs for 1000 steps with 108 atoms

unfix 1
#nRuns starts at 1 so don't increment this time.

fix 1 all npt temp 500 500 0.1 iso 0 0 1
run 1000
Step PotEng Lx Ly Lz Press Pxx Pyy Pzz c_eatoms
1000   -560.43766         8.85    15.328649       14.058    12868.204    14024.108    11343.134     13237.37   -560.43766
Averages over the last 6 of 11 rows, steps 1500 to 2000:
PotEng Lx Ly Lz Press Pxx Pyy Pzz c_eatoms
-559.684 8.8814 15.383 14.1079 -163.89 351.776 41.5885 -885.033 -559.684
Loop time of 0.329028 on 1 procs for 1000 steps with 108 atoms

unfix 1
next nRuns

#cooling
fix 1 all npt temp 500 300 0.1 iso 0 0 1
run 1000
Step PotEng Lx Ly Lz Press Pxx Pyy Pzz c_eatoms
2000   -558.81215    8.8737434    15.369774    14.095716    10775.678    11544.968    9049.6371     11732.43   -558.81215
Averages over the last 6 of 11 rows, steps 2500 to 3000:
PotEng Lx Ly Lz Press Pxx Pyy Pzz c_eatoms
-561.62 8.86981 15.363 14.0895 -394.427 -1142.81 -795.838 755.366 -561.62
Loop time of 0.336564 on 1 procs for 1000 steps with 108 atoms

unfix 1
next nRuns

#final relax
fix 1 all npt temp 300 300 0.1 iso 0 0 1
run 1000
Step PotEng Lx Ly Lz Press Pxx Pyy Pzz c_eatoms
3000   -562.27283    8.8616145    15.348766    14.076449    5374.3156    7940.1337    2322.3537    5860.4596   -562.27283
Averages over the last 6 of 11 rows, steps 3500 to 4000:
PotEng Lx Ly Lz Press Pxx Pyy Pzz c_eatoms
-562.399 8.8696 15.3626 14.0891 667.97 -16.2446 238.132 1782.02 -562.399
Loop time of 0.333219 on 1 procs for 1000 steps with 108 atoms

unfix 1
next nRuns

variable natoms equal "count(all)"
variable teng equal "c_eatoms"
variable length equal "lx"
variable ecoh equal "v_teng/v_natoms"

Total energy (eV) = -563.036615901164;
Number of atoms = 108;
Lattice constant (Angstroms) = 8.869552821587;
Cohesive energy (eV) = -5.21330199908485;

#----------------Jump to potential script--------------
Reference calculations complete. Ran 4 steps. Beginning ADP calculations.

jump in.pot
#--Label cmd to access script from other scripts-----
label startADP

clear

#Debug step. Checking tStep var migrated from in.eam
Initial value of tStep is: 1000.
Initial value of pathName is: ecoh1000.

# ---------- Create Atoms ------------------------------
#Lammps loop cmd starts from 1. Need to capture timestep 0 prior to starting loop.
read_restart ecoh1000/restart_files/ref.restart.0
  restoring atom style atomic from restart
  orthogonal box = (0 0 0) to (8.85 15.3286 14.058)
  pair style eam/fs stores no restart info
  108 atoms
  read_restart CPU = 0.000128245 secs

neighbor 2.0 bin
neigh_modify every 1 delay 0 check yes

# ---------- Define Interatomic Potential ---------------------
pair_style adp
pair_coeff * * Ti.adp Ti

compute apE all pe/atom

dump Dump0 all custom 1 ecoh1000/dump_files/adpDump.txt id x y z vx vy vz fx fy fz c_apE
dump_modify Dump0 sort id  #pbc yes

run 0
  update every 1 steps, delay 0 steps, check yes
Step Temp E_pair E_mol TotEng Press
0          300   -536.45865            0    -532.3094    222794.18
Loop time of 6.41e-07 on 1 procs for 0 steps with 108 atoms

clear

#Begin loop
#--------------------------------------------------
label       loop

variable    loopEnd equal (1000/100)*4
variable    loopExit equal 1000*4
variable    a loop 40

variable    aScaled equal 1*100

timestep = 100

# ---------- Create Atoms ------------------------------
read_restart ecoh1000/restart_files/ref.restart.100
  restoring atom style atomic from restart
  orthogonal box = (0 0 0) to (8.85 15.3286 14.058)
  pair style eam/fs stores no restart info
  108 atoms
  read_restart CPU = 0.000107891 secs

Reading from restart file ref.restart.100

neighbor 2.0 bin
neigh_modify every 1 delay 0 check yes

# ---------- Define Interatomic Potential ---------------------
pair_style adp
pair_coeff * * Ti.adp Ti

compute apE all pe/atom

dump Dumploop all custom 1 ecoh1000/dump_files/adpDumploop.100.txt id x y z vx vy vz fx fy fz c_apE
dump_modify Dumploop sort id  #pbc yes

run 0
Unused restart file global fix info:
  fix style: nvt, fix ID: 1
  update every 1 steps, delay 0 steps, check yes
Step Temp E_pair E_mol TotEng Press
100    177.47497   -552.19775            0   -549.74313    263874.95
Loop time of 6.8e-07 on 1 procs for 0 steps with 108 atoms

#append adpDump.txt with current snapshot of adpDumploop.txt
shell cat ecoh1000/dump_files/adpDumploop.100.txt >> ecoh1000/dump_files/adpDump.txt

shell rm ecoh1000/dump_files/adpDumploop.100.txt

clear

next        a
jump        SELF loop

variable    loopEnd equal (1000/100)*4
variable    loopExit equal 1000*4
variable    a loop 40

variable    aScaled equal 2*100

timestep = 200

# ---------- Create Atoms ------------------------------
read_restart ecoh1000/restart_files/ref.restart.200
  restoring atom style atomic from restart
  orthogonal box = (0 0 0) to (8.85 15.3286 14.058)
  pair style eam/fs stores no restart info
  108 atoms
  read_restart CPU = 9.43e-05 secs

Reading from restart file ref.restart.200

neighbor 2.0 bin
neigh_modify every 1 delay 0 check yes

# ---------- Define Interatomic Potential ---------------------
pair_style adp
pair_coeff * * Ti.adp Ti

compute apE all pe/atom

dump Dumploop all custom 1 ecoh1000/dump_files/adpDumploop.200.txt id x y z vx vy vz fx fy fz c_apE
dump_modify Dumploop sort id  #pbc yes

run 0
Unused restart file global fix info:
  fix style: nvt, fix ID: 1
  update every 1 steps, delay 0 steps, check yes
Step Temp E_pair E_mol TotEng Press
200    191.69156   -551.54088            0   -548.88962    276850.42
Loop time of 8.8e-07 on 1 procs for 0 steps with 108 atoms

#append adpDump.txt with current snapshot of adpDumploop.txt
shell cat ecoh1000/dump_files/adpDumploop.200.txt >> ecoh1000/dump_files/adpDump.txt

shell rm ecoh1000/dump_files/adpDumploop.200.txt

clear

next        a
jump        SELF loop

variable    loopEnd equal (1000/100)*4
variable    loopExit equal 1000*4
variable    a loop 40

variable    aScaled equal 3*100

timestep = 300

# ---------- Create Atoms ------------------------------
read_restart ecoh1000/restart_files/ref.restart.300
  restoring atom style atomic from restart
  orthogonal box = (0 0 0) to (8.85 15.3286 14.058)
  pair style eam/fs stores no restart info
  108 atoms
  read_restart CPU = 0.000182488 secs

Reading from restart file ref.restart.300

neighbor 2.0 bin
neigh_modify every 1 delay 0 check yes

# ---------- Define Interatomic Potential ---------------------
pair_style adp
pair_coeff * * Ti.adp Ti

compute apE all pe/atom

dump Dumploop all custom 1 ecoh1000/dump_files/adpDumploop.300.txt id x y z vx vy vz fx fy fz c_apE
dump_modify Dumploop sort id  #pbc yes

run 0
Unused restart file global fix info:
  fix style: nvt, fix ID: 1
  update every 1 steps, delay 0 steps, check yes
Step Temp E_pair E_mol TotEng Press
300    325.74501   -552.96187            0   -548.45655    287699.89
Loop time of 6.69e-07 on 1 procs for 0 steps with 108 atoms

#append adpDump.txt with current snapshot of adpDumploop.txt
shell cat ecoh1000/dump_files/adpDumploop.300.txt >> ecoh1000/dump_files/adpDump.txt

shell rm ecoh1000/dump_files/adpDumploop.300.txt

clear

next        a
jump        SELF loop

variable    loopEnd equal (1000/100)*4
variable    loopExit equal 1000*4
variable    a loop 40

variable    aScaled equal 4*100

timestep = 400

# ---------- Create Atoms ------------------------------
read_restart ecoh1000/restart_files/ref.restart.400
  restoring atom style atomic from restart
  orthogonal box = (0 0 0) to (8.85 15.3286 14.058)
  pair style eam/fs stores no restart info
  108 atoms
  read_restart CPU = 0.000168691 secs

Reading from restart file ref.restart.400

neighbor 2.0 bin
neigh_modify every 1 delay 0 check yes

# ---------- Define Interatomic Potential ---------------------
pair_style adp
pair_coeff * * Ti.adp Ti

compute apE all pe/atom

dump Dumploop all custom 1 ecoh1000/dump_files/adpDumploop.400.txt id x y z vx vy vz fx fy fz c_apE
dump_modify Dumploop sort id  #pbc yes

run 0
Unused restart file global fix info:
  fix style: nvt, fix ID: 1
  update every 1 steps, delay 0 steps, check yes
Step Temp E_pair E_mol TotEng Press
400    352.91724   -552.64984            0    -547.7687    297812.31
Loop time of 6.85e-07 on 1 procs for 0 steps with 108 atoms

#append adpDump.txt with current snapshot of adpDumploop.txt
shell cat ecoh1000/dump_files/adpDumploop.400.txt >> ecoh1000/dump_files/adpDump.txt

shell rm ecoh1000/dump_files/adpDumploop.400.txt

clear

next        a
jump        SELF loop

variable    loopEnd equal (1000/100)*4
variable    loopExit equal 1000*4
variable    a loop 40

variable    aScaled equal 5*100

timestep = 500

# ---------- Create Atoms ------------------------------
read_restart ecoh1000/restart_files/ref.restart.500
  restoring atom style atomic from restart
  orthogonal box = (0 0 0) to (8.85 15.3286 14.058)
  pair style eam/fs stores no restart info
  108 atoms
  read_restart CPU = 0.00024363 secs

Reading from restart file ref.restart.500

neighbor 2.0 bin
neigh_modify every 1 delay 0 check yes

# ---------- Define Interatomic Potential ---------------------
pair_style adp
pair_coeff * * Ti.adp Ti

compute apE all pe/atom

dump Dumploop all custom 1 ecoh1000/dump_files/adpDumploop.500.txt id x y z vx vy vz fx fy fz c_apE
dump_modify Dumploop sort id  #pbc yes

run 0
Unused restart file global fix info:
  fix style: nvt, fix ID: 1
  update every 1 steps, delay 0 steps, check yes
Step Temp E_pair E_mol TotEng Press
500    442.65149   -548.51616            0   -542.39392    304060.39
Loop time of 7.29e-07 on 1 procs for 0 steps with 108 atoms

#append adpDump.txt with current snapshot of adpDumploop.txt
shell cat ecoh1000/dump_files/adpDumploop.500.txt >> ecoh1000/dump_files/adpDump.txt

shell rm ecoh1000/dump_files/adpDumploop.500.txt

clear

next        a
jump        SELF loop

variable    loopEnd equal (1000/100)*4
variable    loopExit equal 1000*4
variable    a loop 40

variable    aScaled equal 6*100

timestep = 600

# ---------- Create Atoms ------------------------------
read_restart ecoh1000/restart_files/ref.restart.600
  restoring atom style atomic from restart
  orthogonal box = (0 0 0) to (8.85 15.3286 14.058)
  pair style eam/fs stores no restart info
  108 atoms
  read_restart CPU = 0.000166369 secs

Reading from restart file ref.restart.600

neighbor 2.0 bin
neigh_modify every 1 delay 0 check yes

# ---------- Define Interatomic Potential ---------------------
pair_style adp
pair_coeff * * Ti.adp Ti

compute apE all pe/atom

dump Dumploop all custom 1 ecoh1000/dump_files/adpDumploop.600.txt id x y z vx vy vz fx fy fz c_apE
dump_modify Dumploop sort id  #pbc yes

run 0
Unused restart file global fix info:
  fix style: nvt, fix ID: 1
  update every 1 steps, delay 0 steps, check yes
Step Temp E_pair E_mol TotEng Press
600    550.86114   -548.36761            0   -540.74874    311272.28
Loop time of 7.96e-07 on 1 procs for 0 steps with 108 atoms

#append adpDump.txt with current snapshot of adpDumploop.txt
shell cat ecoh1000/dump_files/adpDumploop.600.txt >> ecoh1000/dump_files/adpDump.txt

shell rm ecoh1000/dump_files/adpDumploop.600.txt

clear

next        a
jump        SELF loop

variable    loopEnd equal (1000/100)*4
variable    loopExit equal 1000*4
variable    a loop 40

variable    aScaled equal 7*100

timestep = 700

# ---------- Create Atoms ------------------------------
read_restart ecoh1000/restart_files/ref.restart.700
  restoring atom style atomic from restart
  orthogonal box = (0 0 0) to (8.85 15.3286 14.058)
  pair style eam/fs stores no restart info
  108 atoms
  read_restart CPU = 0.00014334 secs

Reading from restart file ref.restart.700

neighbor 2.0 bin
neigh_modify every 1 delay 0 check yes

# ---------- Define Interatomic Potential ---------------------
pair_style adp
pair_coeff * * Ti.adp Ti

compute apE all pe/atom

dump Dumploop all custom 1 ecoh1000/dump_files/adpDumploop.700.txt id x y z vx vy vz fx fy fz c_apE
dump_modify Dumploop sort id  #pbc yes

run 0
Unused restart file global fix info:
  fix style: nvt, fix ID: 1
  update every 1 steps, delay 0 steps, check yes
Step Temp E_pair E_mol TotEng Press
700    581.63411   -547.50779            0    -539.4633    307720.69
Loop time of 6.73e-07 on 1 procs for 0 steps with 108 atoms

#append adpDump.txt with current snapshot of adpDumploop.txt
shell cat ecoh1000/dump_files/adpDumploop.700.txt >> ecoh1000/dump_files/adpDump.txt

shell rm ecoh1000/dump_files/adpDumploop.700.txt

clear

next        a
jump        SELF loop

variable    loopEnd equal (1000/100)*4
variable    loopExit equal 1000*4
variable    a loop 40

variable    aScaled equal 8*100

timestep = 800

# ---------- Create Atoms ------------------------------
read_restart ecoh1000/restart_files/ref.restart.800
  restoring atom style atomic from restart
  orthogonal box = (0 0 0) to (8.85 15.3286 14.058)
  pair style eam/fs stores no restart info
  108 atoms
  read_restart CPU = 0.00020298 secs

Reading from restart file ref.restart.800

neighbor 2.0 bin
neigh_modify every 1 delay 0 check yes

# ---------- Define Interatomic Potential ---------------------
pair_style adp
pair_coeff * * Ti.adp Ti

compute apE all pe/atom

dump Dumploop all custom 1 ecoh1000/dump_files/adpDumploop.800.txt id x y z vx vy vz fx fy fz c_apE
dump_modify Dumploop sort id  #pbc yes

run 0
Unused restart file global fix info:
  fix style: nvt, fix ID: 1
  update every 1 steps, delay 0 steps, check yes
Step Temp E_pair E_mol TotEng Press
800    582.21508   -548.53847            0   -540.48595    308380.78
Loop time of 7.99e-07 on 1 procs for 0 steps with 108 atoms

#append adpDump.txt with current snapshot of adpDumploop.txt
shell cat ecoh1000/dump_files/adpDumploop.800.txt >> ecoh1000/dump_files/adpDump.txt

shell rm ecoh1000/dump_files/adpDumploop.800.txt

clear

next        a
jump        SELF loop

variable    loopEnd equal (1000/100)*4
variable    loopExit equal 1000*4
variable    a loop 40

variable    aScaled equal 9*100

timestep = 900

# ---------- Create Atoms ------------------------------
read_restart ecoh1000/restart_files/ref.restart.900
  restoring atom style atomic from restart
  orthogonal box = (0 0 0) to (8.85 15.3286 14.058)
  pair style eam/fs stores no restart info
  108 atoms
  read_restart CPU = 0.000298336 secs

Reading from restart file ref.restart.900

neighbor 2.0 bin
neigh_modify every 1 delay 0 check yes

# ---------- Define Interatomic Potential ---------------------
pair_style adp
pair_coeff * * Ti.adp Ti

compute apE all pe/atom

dump Dumploop all custom 1 ecoh1000/dump_files/adpDumploop.900.txt id x y z vx vy vz fx fy fz c_apE
dump_modify Dumploop sort id  #pbc yes

run 0
Unused restart file global fix info:
  fix style: nvt, fix ID: 1
  update every 1 steps, delay 0 steps, check yes
Step Temp E_pair E_mol TotEng Press
900    450.09483   -548.11301            0   -541.88782     308324.1
Loop time of 6.76e-07 on 1 procs for 0 steps with 108 atoms

#append adpDump.txt with current snapshot of adpDumploop.txt
shell cat ecoh1000/dump_files/adpDumploop.900.txt >> ecoh1000/dump_files/adpDump.txt

shell rm ecoh1000/dump_files/adpDumploop.900.txt

clear

next        a
jump        SELF loop

variable    loopEnd equal (1000/100)*4
variable    loopExit equal 1000*4
variable    a loop 40

variable    aScaled equal 10*100

timestep = 1000

# ---------- Create Atoms ------------------------------
read_restart ecoh1000/restart_files/ref.restart.1000
  restoring atom style atomic from restart
  orthogonal box = (0 0 0) to (8.85 15.3286 14.058)
  pair style eam/fs stores no restart info
  108 atoms
  read_restart CPU = 0.000169961 secs

Reading from restart file ref.restart.1000

neighbor 2.0 bin
neigh_modify every 1 delay 0 check yes

# ---------- Define Interatomic Potential ---------------------
pair_style adp
pair_coeff * * Ti.adp Ti

compute apE all pe/atom

dump Dumploop all custom 1 ecoh1000/dump_files/adpDumploop.1000.txt id x y z vx vy vz fx fy fz c_apE
dump_modify Dumploop sort id  #pbc yes

run 0
Unused restart file global fix info:
  fix style: nvt, fix ID: 1
  update every 1 steps, delay 0 steps, check yes
Step Temp E_pair E_mol TotEng Press
1000    465.84343   -550.25831            0    -543.8153    302384.51
Loop time of 6.66e-07 on 1 procs for 0 steps with 108 atoms

#append adpDump.txt with current snapshot of adpDumploop.txt
shell cat ecoh1000/dump_files/adpDumploop.1000.txt >> ecoh1000/dump_files/adpDump.txt

shell rm ecoh1000/dump_files/adpDumploop.1000.txt

clear

next        a
jump        SELF loop

variable    loopEnd equal (1000/100)*4
variable    loopExit equal 1000*4
variable    a loop 40

variable    aScaled equal 11*100

timestep = 1100

# ---------- Create Atoms ------------------------------
read_restart ecoh1000/restart_files/ref.restart.1100
  restoring atom style atomic from restart
  orthogonal box = (-0.0207135 -0.0358769 -0.0329029) to (8.87071 15.3645 14.0909)
  pair style eam/fs stores no restart info
  108 atoms
  read_restart CPU = 0.00014287 secs

Reading from restart file ref.restart.1100

neighbor 2.0 bin
neigh_modify every 1 delay 0 check yes

# ---------- Define Interatomic Potential ---------------------
pair_style adp
pair_coeff * * Ti.adp Ti

compute apE all pe/atom

dump Dumploop all custom 1 ecoh1000/dump_files/adpDumploop.1100.txt id x y z vx vy vz fx fy fz c_apE
dump_modify Dumploop sort id  #pbc yes

run 0
Unused restart file global fix info:
  fix style: npt, fix ID: 1
  update every 1 steps, delay 0 steps, check yes
Step Temp E_pair E_mol TotEng Press
1100    547.40851   -553.06824            0   -545.49712    272552.16
Loop time of 6.45e-07 on 1 procs for 0 steps with 108 atoms

#append adpDump.txt with current snapshot of adpDumploop.txt
shell cat ecoh1000/dump_files/adpDumploop.1100.txt >> ecoh1000/dump_files/adpDump.txt

shell rm ecoh1000/dump_files/adpDumploop.1100.txt

clear

next        a
jump        SELF loop

variable    loopEnd equal (1000/100)*4
variable    loopExit equal 1000*4
variable    a loop 40

variable    aScaled equal 12*100

timestep = 1200

# ---------- Create Atoms ------------------------------
read_restart ecoh1000/restart_files/ref.restart.1200
  restoring atom style atomic from restart
  orthogonal box = (-0.0146915 -0.0254464 -0.023337) to (8.86469 15.3541 14.0813)
  pair style eam/fs stores no restart info
  108 atoms
  read_restart CPU = 0.000107826 secs

Reading from restart file ref.restart.1200

neighbor 2.0 bin
neigh_modify every 1 delay 0 check yes

# ---------- Define Interatomic Potential ---------------------
pair_style adp
pair_coeff * * Ti.adp Ti

compute apE all pe/atom

dump Dumploop all custom 1 ecoh1000/dump_files/adpDumploop.1200.txt id x y z vx vy vz fx fy fz c_apE
dump_modify Dumploop sort id  #pbc yes

run 0
Unused restart file global fix info:
  fix style: npt, fix ID: 1
  update every 1 steps, delay 0 steps, check yes
Step Temp E_pair E_mol TotEng Press
1200    507.18099   -550.59144            0    -543.5767    287833.09
Loop time of 7.38e-07 on 1 procs for 0 steps with 108 atoms

#append adpDump.txt with current snapshot of adpDumploop.txt
shell cat ecoh1000/dump_files/adpDumploop.1200.txt >> ecoh1000/dump_files/adpDump.txt

shell rm ecoh1000/dump_files/adpDumploop.1200.txt

clear

next        a
jump        SELF loop

variable    loopEnd equal (1000/100)*4
variable    loopExit equal 1000*4
variable    a loop 40

variable    aScaled equal 13*100

timestep = 1300

# ---------- Create Atoms ------------------------------
read_restart ecoh1000/restart_files/ref.restart.1300
  restoring atom style atomic from restart
  orthogonal box = (-0.018837 -0.0326266 -0.029922) to (8.86884 15.3613 14.0879)
  pair style eam/fs stores no restart info
  108 atoms
  read_restart CPU = 0.000168899 secs

Reading from restart file ref.restart.1300

neighbor 2.0 bin
neigh_modify every 1 delay 0 check yes

# ---------- Define Interatomic Potential ---------------------
pair_style adp
pair_coeff * * Ti.adp Ti

compute apE all pe/atom

dump Dumploop all custom 1 ecoh1000/dump_files/adpDumploop.1300.txt id x y z vx vy vz fx fy fz c_apE
dump_modify Dumploop sort id  #pbc yes

run 0
Unused restart file global fix info:
  fix style: npt, fix ID: 1
  update every 1 steps, delay 0 steps, check yes
Step Temp E_pair E_mol TotEng Press
1300    555.52892   -551.10636            0   -543.42293    276110.42
Loop time of 7.79e-07 on 1 procs for 0 steps with 108 atoms

#append adpDump.txt with current snapshot of adpDumploop.txt
shell cat ecoh1000/dump_files/adpDumploop.1300.txt >> ecoh1000/dump_files/adpDump.txt

shell rm ecoh1000/dump_files/adpDumploop.1300.txt

clear

next        a
jump        SELF loop

variable    loopEnd equal (1000/100)*4
variable    loopExit equal 1000*4
variable    a loop 40

variable    aScaled equal 14*100

timestep = 1400

# ---------- Create Atoms ------------------------------
read_restart ecoh1000/restart_files/ref.restart.1400
  restoring atom style atomic from restart
  orthogonal box = (-0.00927757 -0.0160692 -0.0147372) to (8.85928 15.3447 14.0727)
  pair style eam/fs stores no restart info
  108 atoms
  read_restart CPU = 0.00031328 secs

Reading from restart file ref.restart.1400

neighbor 2.0 bin
neigh_modify every 1 delay 0 check yes

# ---------- Define Interatomic Potential ---------------------
pair_style adp
pair_coeff * * Ti.adp Ti

compute apE all pe/atom

dump Dumploop all custom 1 ecoh1000/dump_files/adpDumploop.1400.txt id x y z vx vy vz fx fy fz c_apE
dump_modify Dumploop sort id  #pbc yes

run 0
Unused restart file global fix info:
  fix style: npt, fix ID: 1
  update every 1 steps, delay 0 steps, check yes
Step Temp E_pair E_mol TotEng Press
1400     550.0765    -550.0168            0   -542.40878    294115.18
Loop time of 6.49e-07 on 1 procs for 0 steps with 108 atoms

#append adpDump.txt with current snapshot of adpDumploop.txt
shell cat ecoh1000/dump_files/adpDumploop.1400.txt >> ecoh1000/dump_files/adpDump.txt

shell rm ecoh1000/dump_files/adpDumploop.1400.txt

clear

next        a
jump        SELF loop

variable    loopEnd equal (1000/100)*4
variable    loopExit equal 1000*4
variable    a loop 40

variable    aScaled equal 15*100

timestep = 1500

# ---------- Create Atoms ------------------------------
read_restart ecoh1000/restart_files/ref.restart.1500
  restoring atom style atomic from restart
  orthogonal box = (-0.0170167 -0.0294738 -0.0270306) to (8.86702 15.3581 14.085)
  pair style eam/fs stores no restart info
  108 atoms
  read_restart CPU = 0.000188552 secs

Reading from restart file ref.restart.1500

neighbor 2.0 bin
neigh_modify every 1 delay 0 check yes

# ---------- Define Interatomic Potential ---------------------
pair_style adp
pair_coeff * * Ti.adp Ti

compute apE all pe/atom

dump Dumploop all custom 1 ecoh1000/dump_files/adpDumploop.1500.txt id x y z vx vy vz fx fy fz c_apE
dump_modify Dumploop sort id  #pbc yes

run 0
Unused restart file global fix info:
  fix style: npt, fix ID: 1
  update every 1 steps, delay 0 steps, check yes
Step Temp E_pair E_mol TotEng Press
1500    438.75305   -550.98915            0   -544.92083    286017.47
Loop time of 7.61e-07 on 1 procs for 0 steps with 108 atoms

#append adpDump.txt with current snapshot of adpDumploop.txt
shell cat ecoh1000/dump_files/adpDumploop.1500.txt >> ecoh1000/dump_files/adpDump.txt

shell rm ecoh1000/dump_files/adpDumploop.1500.txt

clear

next        a
jump        SELF loop

variable    loopEnd equal (1000/100)*4
variable    loopExit equal 1000*4
variable    a loop 40

variable    aScaled equal 16*100

timestep = 1600

# ---------- Create Atoms ------------------------------
read_restart ecoh1000/restart_files/ref.restart.1600
  restoring atom style atomic from restart
  orthogonal box = (-0.00742322 -0.0128574 -0.0117916) to (8.85742 15.3415 14.0698)
  pair style eam/fs stores no restart info
  108 atoms
  read_restart CPU = 0.000147166 secs

Reading from restart file ref.restart.1600

neighbor 2.0 bin
neigh_modify every 1 delay 0 check yes

# ---------- Define Interatomic Potential ---------------------
pair_style adp
pair_coeff * * Ti.adp Ti

compute apE all pe/atom

dump Dumploop all custom 1 ecoh1000/dump_files/adpDumploop.1600.txt id x y z vx vy vz fx fy fz c_apE
dump_modify Dumploop sort id  #pbc yes

run 0
Unused restart file global fix info:
  fix style: npt, fix ID: 1
  update every 1 steps, delay 0 steps, check yes
Step Temp E_pair E_mol TotEng Press
1600    475.27223   -550.39098            0   -543.81757    296166.77
Loop time of 7.33e-07 on 1 procs for 0 steps with 108 atoms

#append adpDump.txt with current snapshot of adpDumploop.txt
shell cat ecoh1000/dump_files/adpDumploop.1600.txt >> ecoh1000/dump_files/adpDump.txt

shell rm ecoh1000/dump_files/adpDumploop.1600.txt

clear

next        a
jump        SELF loop

variable    loopEnd equal (1000/100)*4
variable    loopExit equal 1000*4
variable    a loop 40

variable    aScaled equal 17*100

timestep = 1700

# ---------- Create Atoms ------------------------------
read_restart ecoh1000/restart_files/ref.restart.1700
  restoring atom style atomic from restart
  orthogonal box = (-0.0261915 -0.045365 -0.0416045) to (8.87619 15.374 14.0996)
  pair style eam/fs stores no restart info
  108 atoms
  read_restart CPU = 0.000204666 secs

Reading from restart file ref.restart.1700

neighbor 2.0 bin
neigh_modify every 1 delay 0 check yes

# ---------- Define Interatomic Potential ---------------------
pair_style adp
pair_coeff * * Ti.adp Ti

compute apE all pe/atom

dump Dumploop all custom 1 ecoh1000/dump_files/adpDumploop.1700.txt id x y z vx vy vz fx fy fz c_apE
dump_modify Dumploop sort id  #pbc yes

run 0
Unused restart file global fix info:
  fix style: npt, fix ID: 1
  update every 1 steps, delay 0 steps, check yes
Step Temp E_pair E_mol TotEng Press
1700    532.88699   -553.99275            0   -546.62248    269841.65
Loop time of 7.47e-07 on 1 procs for 0 steps with 108 atoms

#append adpDump.txt with current snapshot of adpDumploop.txt
shell cat ecoh1000/dump_files/adpDumploop.1700.txt >> ecoh1000/dump_files/adpDump.txt

shell rm ecoh1000/dump_files/adpDumploop.1700.txt

clear

next        a
jump        SELF loop

variable    loopEnd equal (1000/100)*4
variable    loopExit equal 1000*4
variable    a loop 40

variable    aScaled equal 18*100

timestep = 1800

# ---------- Create Atoms ------------------------------
read_restart ecoh1000/restart_files/ref.restart.1800
  restoring atom style atomic from restart
  orthogonal box = (-0.00463545 -0.00802884 -0.0073633) to (8.85464 15.3367 14.0654)
  pair style eam/fs stores no restart info
  108 atoms
  read_restart CPU = 0.000133058 secs

Reading from restart file ref.restart.1800

neighbor 2.0 bin
neigh_modify every 1 delay 0 check yes

# ---------- Define Interatomic Potential ---------------------
pair_style adp
pair_coeff * * Ti.adp Ti

compute apE all pe/atom

dump Dumploop all custom 1 ecoh1000/dump_files/adpDumploop.1800.txt id x y z vx vy vz fx fy fz c_apE
dump_modify Dumploop sort id  #pbc yes

run 0
Unused restart file global fix info:
  fix style: npt, fix ID: 1
  update every 1 steps, delay 0 steps, check yes
Step Temp E_pair E_mol TotEng Press
1800    544.43706   -550.28785            0   -542.75783    301471.56
Loop time of 6.47e-07 on 1 procs for 0 steps with 108 atoms

#append adpDump.txt with current snapshot of adpDumploop.txt
shell cat ecoh1000/dump_files/adpDumploop.1800.txt >> ecoh1000/dump_files/adpDump.txt

shell rm ecoh1000/dump_files/adpDumploop.1800.txt

clear

next        a
jump        SELF loop

variable    loopEnd equal (1000/100)*4
variable    loopExit equal 1000*4
variable    a loop 40

variable    aScaled equal 19*100

timestep = 1900

# ---------- Create Atoms ------------------------------
read_restart ecoh1000/restart_files/ref.restart.1900
  restoring atom style atomic from restart
  orthogonal box = (-0.0270581 -0.0468659 -0.042981) to (8.87706 15.3755 14.101)
  pair style eam/fs stores no restart info
  108 atoms
  read_restart CPU = 0.000159478 secs

Reading from restart file ref.restart.1900

neighbor 2.0 bin
neigh_modify every 1 delay 0 check yes

# ---------- Define Interatomic Potential ---------------------
pair_style adp
pair_coeff * * Ti.adp Ti

compute apE all pe/atom

dump Dumploop all custom 1 ecoh1000/dump_files/adpDumploop.1900.txt id x y z vx vy vz fx fy fz c_apE
dump_modify Dumploop sort id  #pbc yes

run 0
Unused restart file global fix info:
  fix style: npt, fix ID: 1
  update every 1 steps, delay 0 steps, check yes
Step Temp E_pair E_mol TotEng Press
1900    523.13528   -550.53151            0   -543.29611    275343.24
Loop time of 7.43e-07 on 1 procs for 0 steps with 108 atoms

#append adpDump.txt with current snapshot of adpDumploop.txt
shell cat ecoh1000/dump_files/adpDumploop.1900.txt >> ecoh1000/dump_files/adpDump.txt

shell rm ecoh1000/dump_files/adpDumploop.1900.txt

clear

next        a
jump        SELF loop

variable    loopEnd equal (1000/100)*4
variable    loopExit equal 1000*4
variable    a loop 40

variable    aScaled equal 20*100

timestep = 2000

# ---------- Create Atoms ------------------------------
read_restart ecoh1000/restart_files/ref.restart.2000
  restoring atom style atomic from restart
  orthogonal box = (-0.0118717 -0.0205624 -0.0188579) to (8.86187 15.3492 14.0769)
  pair style eam/fs stores no restart info
  108 atoms
  read_restart CPU = 0.000222577 secs

Reading from restart file ref.restart.2000

neighbor 2.0 bin
neigh_modify every 1 delay 0 check yes

# ---------- Define Interatomic Potential ---------------------
pair_style adp
pair_coeff * * Ti.adp Ti

compute apE all pe/atom

dump Dumploop all custom 1 ecoh1000/dump_files/adpDumploop.2000.txt id x y z vx vy vz fx fy fz c_apE
dump_modify Dumploop sort id  #pbc yes

run 0
Unused restart file global fix info:
  fix style: npt, fix ID: 1
  update every 1 steps, delay 0 steps, check yes
Step Temp E_pair E_mol TotEng Press
2000    463.32834   -548.54973            0   -542.14151     293688.9
Loop time of 7.92e-07 on 1 procs for 0 steps with 108 atoms

#append adpDump.txt with current snapshot of adpDumploop.txt
shell cat ecoh1000/dump_files/adpDumploop.2000.txt >> ecoh1000/dump_files/adpDump.txt

shell rm ecoh1000/dump_files/adpDumploop.2000.txt

clear

next        a
jump        SELF loop

variable    loopEnd equal (1000/100)*4
variable    loopExit equal 1000*4
variable    a loop 40

variable    aScaled equal 21*100

timestep = 2100

# ---------- Create Atoms ------------------------------
read_restart ecoh1000/restart_files/ref.restart.2100
  restoring atom style atomic from restart
  orthogonal box = (-0.0182976 -0.0316923 -0.0290652) to (8.8683 15.3603 14.0871)
  pair style eam/fs stores no restart info
  108 atoms
  read_restart CPU = 0.000203288 secs

Reading from restart file ref.restart.2100

neighbor 2.0 bin
neigh_modify every 1 delay 0 check yes

# ---------- Define Interatomic Potential ---------------------
pair_style adp
pair_coeff * * Ti.adp Ti

compute apE all pe/atom

dump Dumploop all custom 1 ecoh1000/dump_files/adpDumploop.2100.txt id x y z vx vy vz fx fy fz c_apE
dump_modify Dumploop sort id  #pbc yes

run 0
Unused restart file global fix info:
  fix style: npt, fix ID: 1
  update every 1 steps, delay 0 steps, check yes
Step Temp E_pair E_mol TotEng Press
2100    536.38552   -550.83225            0   -543.41359    285944.15
Loop time of 8.44e-07 on 1 procs for 0 steps with 108 atoms

#append adpDump.txt with current snapshot of adpDumploop.txt
shell cat ecoh1000/dump_files/adpDumploop.2100.txt >> ecoh1000/dump_files/adpDump.txt

shell rm ecoh1000/dump_files/adpDumploop.2100.txt

clear

next        a
jump        SELF loop

variable    loopEnd equal (1000/100)*4
variable    loopExit equal 1000*4
variable    a loop 40

variable    aScaled equal 22*100

timestep = 2200

# ---------- Create Atoms ------------------------------
read_restart ecoh1000/restart_files/ref.restart.2200
  restoring atom style atomic from restart
  orthogonal box = (-0.0148488 -0.0257189 -0.023587) to (8.86485 15.3544 14.0816)
  pair style eam/fs stores no restart info
  108 atoms
  read_restart CPU = 0.000129501 secs

Reading from restart file ref.restart.2200

neighbor 2.0 bin
neigh_modify every 1 delay 0 check yes

# ---------- Define Interatomic Potential ---------------------
pair_style adp
pair_coeff * * Ti.adp Ti

compute apE all pe/atom

dump Dumploop all custom 1 ecoh1000/dump_files/adpDumploop.2200.txt id x y z vx vy vz fx fy fz c_apE
dump_modify Dumploop sort id  #pbc yes

run 0
Unused restart file global fix info:
  fix style: npt, fix ID: 1
  update every 1 steps, delay 0 steps, check yes
Step Temp E_pair E_mol TotEng Press
2200    455.63204   -550.48011            0   -544.17834     276497.3
Loop time of 7.31e-07 on 1 procs for 0 steps with 108 atoms

#append adpDump.txt with current snapshot of adpDumploop.txt
shell cat ecoh1000/dump_files/adpDumploop.2200.txt >> ecoh1000/dump_files/adpDump.txt

shell rm ecoh1000/dump_files/adpDumploop.2200.txt

clear

next        a
jump        SELF loop

variable    loopEnd equal (1000/100)*4
variable    loopExit equal 1000*4
variable    a loop 40

variable    aScaled equal 23*100

timestep = 2300

# ---------- Create Atoms ------------------------------
read_restart ecoh1000/restart_files/ref.restart.2300
  restoring atom style atomic from restart
  orthogonal box = (-0.0111685 -0.0193444 -0.0177409) to (8.86117 15.348 14.0757)
  pair style eam/fs stores no restart info
  108 atoms
  read_restart CPU = 0.000124711 secs

Reading from restart file ref.restart.2300

neighbor 2.0 bin
neigh_modify every 1 delay 0 check yes

# ---------- Define Interatomic Potential ---------------------
pair_style adp
pair_coeff * * Ti.adp Ti

compute apE all pe/atom

dump Dumploop all custom 1 ecoh1000/dump_files/adpDumploop.2300.txt id x y z vx vy vz fx fy fz c_apE
dump_modify Dumploop sort id  #pbc yes

run 0
Unused restart file global fix info:
  fix style: npt, fix ID: 1
  update every 1 steps, delay 0 steps, check yes
Step Temp E_pair E_mol TotEng Press
2300    482.96919    -551.9706            0   -545.29073    283862.29
Loop time of 6.84e-07 on 1 procs for 0 steps with 108 atoms

#append adpDump.txt with current snapshot of adpDumploop.txt
shell cat ecoh1000/dump_files/adpDumploop.2300.txt >> ecoh1000/dump_files/adpDump.txt

shell rm ecoh1000/dump_files/adpDumploop.2300.txt

clear

next        a
jump        SELF loop

variable    loopEnd equal (1000/100)*4
variable    loopExit equal 1000*4
variable    a loop 40

variable    aScaled equal 24*100

timestep = 2400

# ---------- Create Atoms ------------------------------
read_restart ecoh1000/restart_files/ref.restart.2400
  restoring atom style atomic from restart
  orthogonal box = (-0.0141963 -0.0245888 -0.0225505) to (8.8642 15.3532 14.0806)
  pair style eam/fs stores no restart info
  108 atoms
  read_restart CPU = 0.00010644 secs

Reading from restart file ref.restart.2400

neighbor 2.0 bin
neigh_modify every 1 delay 0 check yes

# ---------- Define Interatomic Potential ---------------------
pair_style adp
pair_coeff * * Ti.adp Ti

compute apE all pe/atom

dump Dumploop all custom 1 ecoh1000/dump_files/adpDumploop.2400.txt id x y z vx vy vz fx fy fz c_apE
dump_modify Dumploop sort id  #pbc yes

run 0
Unused restart file global fix info:
  fix style: npt, fix ID: 1
  update every 1 steps, delay 0 steps, check yes
Step Temp E_pair E_mol TotEng Press
2400    455.29366   -551.34801            0   -545.05092    271947.41
Loop time of 6.59e-07 on 1 procs for 0 steps with 108 atoms

#append adpDump.txt with current snapshot of adpDumploop.txt
shell cat ecoh1000/dump_files/adpDumploop.2400.txt >> ecoh1000/dump_files/adpDump.txt

shell rm ecoh1000/dump_files/adpDumploop.2400.txt

clear

next        a
jump        SELF loop

variable    loopEnd equal (1000/100)*4
variable    loopExit equal 1000*4
variable    a loop 40

variable    aScaled equal 25*100

timestep = 2500

# ---------- Create Atoms ------------------------------
read_restart ecoh1000/restart_files/ref.restart.2500
  restoring atom style atomic from restart
  orthogonal box = (-0.0102542 -0.0177608 -0.0162885) to (8.86025 15.3464 14.0743)
  pair style eam/fs stores no restart info
  108 atoms
  read_restart CPU = 0.00013816 secs

Reading from restart file ref.restart.2500

neighbor 2.0 bin
neigh_modify every 1 delay 0 check yes

# ---------- Define Interatomic Potential ---------------------
pair_style adp
pair_coeff * * Ti.adp Ti

compute apE all pe/atom

dump Dumploop all custom 1 ecoh1000/dump_files/adpDumploop.2500.txt id x y z vx vy vz fx fy fz c_apE
dump_modify Dumploop sort id  #pbc yes

run 0
Unused restart file global fix info:
  fix style: npt, fix ID: 1
  update every 1 steps, delay 0 steps, check yes
Step Temp E_pair E_mol TotEng Press
2500    387.78668   -551.05774            0   -545.69432    284465.73
Loop time of 7.36e-07 on 1 procs for 0 steps with 108 atoms

#append adpDump.txt with current snapshot of adpDumploop.txt
shell cat ecoh1000/dump_files/adpDumploop.2500.txt >> ecoh1000/dump_files/adpDump.txt

shell rm ecoh1000/dump_files/adpDumploop.2500.txt

clear

next        a
jump        SELF loop

variable    loopEnd equal (1000/100)*4
variable    loopExit equal 1000*4
variable    a loop 40

variable    aScaled equal 26*100

timestep = 2600

# ---------- Create Atoms ------------------------------
read_restart ecoh1000/restart_files/ref.restart.2600
  restoring atom style atomic from restart
  orthogonal box = (-0.0130157 -0.0225438 -0.0206751) to (8.86302 15.3512 14.0787)
  pair style eam/fs stores no restart info
  108 atoms
  read_restart CPU = 0.000140829 secs

Reading from restart file ref.restart.2600

neighbor 2.0 bin
neigh_modify every 1 delay 0 check yes

# ---------- Define Interatomic Potential ---------------------
pair_style adp
pair_coeff * * Ti.adp Ti

compute apE all pe/atom

dump Dumploop all custom 1 ecoh1000/dump_files/adpDumploop.2600.txt id x y z vx vy vz fx fy fz c_apE
dump_modify Dumploop sort id  #pbc yes

run 0
Unused restart file global fix info:
  fix style: npt, fix ID: 1
  update every 1 steps, delay 0 steps, check yes
Step Temp E_pair E_mol TotEng Press
2600    366.09971   -549.96813            0   -544.90467    274652.54
Loop time of 8.14e-07 on 1 procs for 0 steps with 108 atoms

#append adpDump.txt with current snapshot of adpDumploop.txt
shell cat ecoh1000/dump_files/adpDumploop.2600.txt >> ecoh1000/dump_files/adpDump.txt

shell rm ecoh1000/dump_files/adpDumploop.2600.txt

clear

next        a
jump        SELF loop

variable    loopEnd equal (1000/100)*4
variable    loopExit equal 1000*4
variable    a loop 40

variable    aScaled equal 27*100

timestep = 2700

# ---------- Create Atoms ------------------------------
read_restart ecoh1000/restart_files/ref.restart.2700
  restoring atom style atomic from restart
  orthogonal box = (-0.00928353 -0.0160795 -0.0147466) to (8.85928 15.3447 14.0727)
  pair style eam/fs stores no restart info
  108 atoms
  read_restart CPU = 0.00020394 secs

Reading from restart file ref.restart.2700

neighbor 2.0 bin
neigh_modify every 1 delay 0 check yes

# ---------- Define Interatomic Potential ---------------------
pair_style adp
pair_coeff * * Ti.adp Ti

compute apE all pe/atom

dump Dumploop all custom 1 ecoh1000/dump_files/adpDumploop.2700.txt id x y z vx vy vz fx fy fz c_apE
dump_modify Dumploop sort id  #pbc yes

run 0
Unused restart file global fix info:
  fix style: npt, fix ID: 1
  update every 1 steps, delay 0 steps, check yes
Step Temp E_pair E_mol TotEng Press
2700    351.19838   -552.48763            0   -547.63026    278168.57
Loop time of 7.06e-07 on 1 procs for 0 steps with 108 atoms

#append adpDump.txt with current snapshot of adpDumploop.txt
shell cat ecoh1000/dump_files/adpDumploop.2700.txt >> ecoh1000/dump_files/adpDump.txt

shell rm ecoh1000/dump_files/adpDumploop.2700.txt

clear

next        a
jump        SELF loop

variable    loopEnd equal (1000/100)*4
variable    loopExit equal 1000*4
variable    a loop 40

variable    aScaled equal 28*100

timestep = 2800

# ---------- Create Atoms ------------------------------
read_restart ecoh1000/restart_files/ref.restart.2800
  restoring atom style atomic from restart
  orthogonal box = (-0.0109804 -0.0190186 -0.0174421) to (8.86098 15.3477 14.0754)
  pair style eam/fs stores no restart info
  108 atoms
  read_restart CPU = 0.00012869 secs

Reading from restart file ref.restart.2800

neighbor 2.0 bin
neigh_modify every 1 delay 0 check yes

# ---------- Define Interatomic Potential ---------------------
pair_style adp
pair_coeff * * Ti.adp Ti

compute apE all pe/atom

dump Dumploop all custom 1 ecoh1000/dump_files/adpDumploop.2800.txt id x y z vx vy vz fx fy fz c_apE
dump_modify Dumploop sort id  #pbc yes

run 0
Unused restart file global fix info:
  fix style: npt, fix ID: 1
  update every 1 steps, delay 0 steps, check yes
Step Temp E_pair E_mol TotEng Press
2800    364.52506   -552.01421            0   -546.97252    271362.99
Loop time of 7.41e-07 on 1 procs for 0 steps with 108 atoms

#append adpDump.txt with current snapshot of adpDumploop.txt
shell cat ecoh1000/dump_files/adpDumploop.2800.txt >> ecoh1000/dump_files/adpDump.txt

shell rm ecoh1000/dump_files/adpDumploop.2800.txt

clear

next        a
jump        SELF loop

variable    loopEnd equal (1000/100)*4
variable    loopExit equal 1000*4
variable    a loop 40

variable    aScaled equal 29*100

timestep = 2900

# ---------- Create Atoms ------------------------------
read_restart ecoh1000/restart_files/ref.restart.2900
  restoring atom style atomic from restart
  orthogonal box = (-0.0100965 -0.0174876 -0.016038) to (8.8601 15.3461 14.074)
  pair style eam/fs stores no restart info
  108 atoms
  read_restart CPU = 0.000113138 secs

Reading from restart file ref.restart.2900

neighbor 2.0 bin
neigh_modify every 1 delay 0 check yes

# ---------- Define Interatomic Potential ---------------------
pair_style adp
pair_coeff * * Ti.adp Ti

compute apE all pe/atom

dump Dumploop all custom 1 ecoh1000/dump_files/adpDumploop.2900.txt id x y z vx vy vz fx fy fz c_apE
dump_modify Dumploop sort id  #pbc yes

run 0
Unused restart file global fix info:
  fix style: npt, fix ID: 1
  update every 1 steps, delay 0 steps, check yes
Step Temp E_pair E_mol TotEng Press
2900      375.083   -551.64822            0    -546.4605    270680.68
Loop time of 7.46e-07 on 1 procs for 0 steps with 108 atoms

#append adpDump.txt with current snapshot of adpDumploop.txt
shell cat ecoh1000/dump_files/adpDumploop.2900.txt >> ecoh1000/dump_files/adpDump.txt

shell rm ecoh1000/dump_files/adpDumploop.2900.txt

clear

next        a
jump        SELF loop

variable    loopEnd equal (1000/100)*4
variable    loopExit equal 1000*4
variable    a loop 40

variable    aScaled equal 30*100

timestep = 3000

# ---------- Create Atoms ------------------------------
read_restart ecoh1000/restart_files/ref.restart.3000
  restoring atom style atomic from restart
  orthogonal box = (-0.00580726 -0.0100585 -0.00922469) to (8.85581 15.3387 14.0672)
  pair style eam/fs stores no restart info
  108 atoms
  read_restart CPU = 0.000132672 secs

Reading from restart file ref.restart.3000

neighbor 2.0 bin
neigh_modify every 1 delay 0 check yes

# ---------- Define Interatomic Potential ---------------------
pair_style adp
pair_coeff * * Ti.adp Ti

compute apE all pe/atom

dump Dumploop all custom 1 ecoh1000/dump_files/adpDumploop.3000.txt id x y z vx vy vz fx fy fz c_apE
dump_modify Dumploop sort id  #pbc yes

run 0
Unused restart file global fix info:
  fix style: npt, fix ID: 1
  update every 1 steps, delay 0 steps, check yes
Step Temp E_pair E_mol TotEng Press
3000    316.95523   -551.49264            0   -547.10889     278786.6
Loop time of 7.46e-07 on 1 procs for 0 steps with 108 atoms

#append adpDump.txt with current snapshot of adpDumploop.txt
shell cat ecoh1000/dump_files/adpDumploop.3000.txt >> ecoh1000/dump_files/adpDump.txt

shell rm ecoh1000/dump_files/adpDumploop.3000.txt

clear

next        a
jump        SELF loop

variable    loopEnd equal (1000/100)*4
variable    loopExit equal 1000*4
variable    a loop 40

variable    aScaled equal 31*100

timestep = 3100

# ---------- Create Atoms ------------------------------
read_restart ecoh1000/restart_files/ref.restart.3100
  restoring atom style atomic from restart
  orthogonal box = (-0.00217454 -0.00376642 -0.0034542) to (8.85217 15.3324 14.0615)
  pair style eam/fs stores no restart info
  108 atoms
  read_restart CPU = 0.000291461 secs

Reading from restart file ref.restart.3100

neighbor 2.0 bin
neigh_modify every 1 delay 0 check yes

# ---------- Define Interatomic Potential ---------------------
pair_style adp
pair_coeff * * Ti.adp Ti

compute apE all pe/atom

dump Dumploop all custom 1 ecoh1000/dump_files/adpDumploop.3100.txt id x y z vx vy vz fx fy fz c_apE
dump_modify Dumploop sort id  #pbc yes

run 0
Unused restart file global fix info:
  fix style: npt, fix ID: 1
  update every 1 steps, delay 0 steps, check yes
Step Temp E_pair E_mol TotEng Press
3100    334.13096   -551.95141            0    -547.3301    278329.86
Loop time of 6.8e-07 on 1 procs for 0 steps with 108 atoms

#append adpDump.txt with current snapshot of adpDumploop.txt
shell cat ecoh1000/dump_files/adpDumploop.3100.txt >> ecoh1000/dump_files/adpDump.txt

shell rm ecoh1000/dump_files/adpDumploop.3100.txt

clear

next        a
jump        SELF loop

variable    loopEnd equal (1000/100)*4
variable    loopExit equal 1000*4
variable    a loop 40

variable    aScaled equal 32*100

timestep = 3200

# ---------- Create Atoms ------------------------------
read_restart ecoh1000/restart_files/ref.restart.3200
  restoring atom style atomic from restart
  orthogonal box = (-0.0180805 -0.0313163 -0.0287204) to (8.86808 15.36 14.0867)
  pair style eam/fs stores no restart info
  108 atoms
  read_restart CPU = 0.000170752 secs

Reading from restart file ref.restart.3200

neighbor 2.0 bin
neigh_modify every 1 delay 0 check yes

# ---------- Define Interatomic Potential ---------------------
pair_style adp
pair_coeff * * Ti.adp Ti

compute apE all pe/atom

dump Dumploop all custom 1 ecoh1000/dump_files/adpDumploop.3200.txt id x y z vx vy vz fx fy fz c_apE
dump_modify Dumploop sort id  #pbc yes

run 0
Unused restart file global fix info:
  fix style: npt, fix ID: 1
  update every 1 steps, delay 0 steps, check yes
Step Temp E_pair E_mol TotEng Press
3200    278.22534   -552.54187            0   -548.69378    260652.43
Loop time of 7.45e-07 on 1 procs for 0 steps with 108 atoms

#append adpDump.txt with current snapshot of adpDumploop.txt
shell cat ecoh1000/dump_files/adpDumploop.3200.txt >> ecoh1000/dump_files/adpDump.txt

shell rm ecoh1000/dump_files/adpDumploop.3200.txt

clear

next        a
jump        SELF loop

variable    loopEnd equal (1000/100)*4
variable    loopExit equal 1000*4
variable    a loop 40

variable    aScaled equal 33*100

timestep = 3300

# ---------- Create Atoms ------------------------------
read_restart ecoh1000/restart_files/ref.restart.3300
  restoring atom style atomic from restart
  orthogonal box = (-0.00298271 -0.0051662 -0.00473796) to (8.85298 15.3338 14.0627)
  pair style eam/fs stores no restart info
  108 atoms
  read_restart CPU = 0.000135818 secs

Reading from restart file ref.restart.3300

neighbor 2.0 bin
neigh_modify every 1 delay 0 check yes

# ---------- Define Interatomic Potential ---------------------
pair_style adp
pair_coeff * * Ti.adp Ti

compute apE all pe/atom

dump Dumploop all custom 1 ecoh1000/dump_files/adpDumploop.3300.txt id x y z vx vy vz fx fy fz c_apE
dump_modify Dumploop sort id  #pbc yes

run 0
Unused restart file global fix info:
  fix style: npt, fix ID: 1
  update every 1 steps, delay 0 steps, check yes
Step Temp E_pair E_mol TotEng Press
3300    252.88973   -551.04347            0    -547.5458    273909.52
Loop time of 6.75e-07 on 1 procs for 0 steps with 108 atoms

#append adpDump.txt with current snapshot of adpDumploop.txt
shell cat ecoh1000/dump_files/adpDumploop.3300.txt >> ecoh1000/dump_files/adpDump.txt

shell rm ecoh1000/dump_files/adpDumploop.3300.txt

clear

next        a
jump        SELF loop

variable    loopEnd equal (1000/100)*4
variable    loopExit equal 1000*4
variable    a loop 40

variable    aScaled equal 34*100

timestep = 3400

# ---------- Create Atoms ------------------------------
read_restart ecoh1000/restart_files/ref.restart.3400
  restoring atom style atomic from restart
  orthogonal box = (-0.00768823 -0.0133164 -0.0122126) to (8.85769 15.342 14.0702)
  pair style eam/fs stores no restart info
  108 atoms
  read_restart CPU = 0.000131647 secs

Reading from restart file ref.restart.3400

neighbor 2.0 bin
neigh_modify every 1 delay 0 check yes

# ---------- Define Interatomic Potential ---------------------
pair_style adp
pair_coeff * * Ti.adp Ti

compute apE all pe/atom

dump Dumploop all custom 1 ecoh1000/dump_files/adpDumploop.3400.txt id x y z vx vy vz fx fy fz c_apE
dump_modify Dumploop sort id  #pbc yes

run 0
Unused restart file global fix info:
  fix style: npt, fix ID: 1
  update every 1 steps, delay 0 steps, check yes
Step Temp E_pair E_mol TotEng Press
3400    240.27898   -552.15876            0    -548.8355    269019.19
Loop time of 7.01e-07 on 1 procs for 0 steps with 108 atoms

#append adpDump.txt with current snapshot of adpDumploop.txt
shell cat ecoh1000/dump_files/adpDumploop.3400.txt >> ecoh1000/dump_files/adpDump.txt

shell rm ecoh1000/dump_files/adpDumploop.3400.txt

clear

next        a
jump        SELF loop

variable    loopEnd equal (1000/100)*4
variable    loopExit equal 1000*4
variable    a loop 40

variable    aScaled equal 35*100

timestep = 3500

# ---------- Create Atoms ------------------------------
read_restart ecoh1000/restart_files/ref.restart.3500
  restoring atom style atomic from restart
  orthogonal box = (-0.0106451 -0.0184378 -0.0169094) to (8.86065 15.3471 14.0749)
  pair style eam/fs stores no restart info
  108 atoms
  read_restart CPU = 0.000142068 secs

Reading from restart file ref.restart.3500

neighbor 2.0 bin
neigh_modify every 1 delay 0 check yes

# ---------- Define Interatomic Potential ---------------------
pair_style adp
pair_coeff * * Ti.adp Ti

compute apE all pe/atom

dump Dumploop all custom 1 ecoh1000/dump_files/adpDumploop.3500.txt id x y z vx vy vz fx fy fz c_apE
dump_modify Dumploop sort id  #pbc yes

run 0
Unused restart file global fix info:
  fix style: npt, fix ID: 1
  update every 1 steps, delay 0 steps, check yes
Loop time of 6.76e-07 on 1 procs for 0 steps with 108 atoms

#append adpDump.txt with current snapshot of adpDumploop.txt
shell cat ecoh1000/dump_files/adpDumploop.3500.txt >> ecoh1000/dump_files/adpDump.txt

shell rm ecoh1000/dump_files/adpDumploop.3500.txt

clear

next        a
jump        SELF loop

variable    loopEnd equal (1000/100)*4
variable    loopExit equal 1000*4
variable    a loop 40

variable    aScaled equal 36*100

timestep = 3600

# ---------- Create Atoms ------------------------------
read_restart ecoh1000/restart_files/ref.restart.3600
  restoring atom style atomic from restart
  orthogonal box = (-0.0031164 -0.00539777 -0.00495032) to (8.85312 15.334 14.063)
  pair style eam/fs stores no restart info
  108 atoms
  read_restart CPU = 0.000103377 secs

Reading from restart file ref.restart.3600

neighbor 2.0 bin
neigh_modify every 1 delay 0 check yes

# ---------- Define Interatomic Potential ---------------------
pair_style adp
pair_coeff * * Ti.adp Ti

compute apE all pe/atom

dump Dumploop all custom 1 ecoh1000/dump_files/adpDumploop.3600.txt id x y z vx vy vz fx fy fz c_apE
dump_modify Dumploop sort id  #pbc yes

run 0
Unused restart file global fix info:
  fix style: npt, fix ID: 1
  update every 1 steps, delay 0 steps, check yes
Loop time of 1.127e-06 on 1 procs for 0 steps with 108 atoms

#append adpDump.txt with current snapshot of adpDumploop.txt
shell cat ecoh1000/dump_files/adpDumploop.3600.txt >> ecoh1000/dump_files/adpDump.txt

shell rm ecoh1000/dump_files/adpDumploop.3600.txt

clear

next        a
jump        SELF loop

variable    loopEnd equal (1000/100)*4
variable    loopExit equal 1000*4
variable    a loop 40

variable    aScaled equal 37*100

timestep = 3700

# ---------- Create Atoms ------------------------------
read_restart ecoh1000/restart_files/ref.restart.3700
  restoring atom style atomic from restart
  orthogonal box = (-0.0228489 -0.0395755 -0.036295) to (8.87285 15.3682 14.0943)
  pair style eam/fs stores no restart info
  108 atoms
  read_restart CPU = 0.000114075 secs

Reading from restart file ref.restart.3700

neighbor 2.0 bin
neigh_modify every 1 delay 0 check yes

# ---------- Define Interatomic Potential ---------------------
pair_style adp
pair_coeff * * Ti.adp Ti

compute apE all pe/atom

dump Dumploop all custom 1 ecoh1000/dump_files/adpDumploop.3700.txt id x y z vx vy vz fx fy fz c_apE
dump_modify Dumploop sort id  #pbc yes

run 0
Unused restart file global fix info:
  fix style: npt, fix ID: 1
  update every 1 steps, delay 0 steps, check yes
Loop time of 7.9e-07 on 1 procs for 0 steps with 108 atoms

#append adpDump.txt with current snapshot of adpDumploop.txt
shell cat ecoh1000/dump_files/adpDumploop.3700.txt >> ecoh1000/dump_files/adpDump.txt

shell rm ecoh1000/dump_files/adpDumploop.3700.txt

clear

next        a
jump        SELF loop

variable    loopEnd equal (1000/100)*4
variable    loopExit equal 1000*4
variable    a loop 40

variable    aScaled equal 38*100

timestep = 3800

# ---------- Create Atoms ------------------------------
read_restart ecoh1000/restart_files/ref.restart.3800
  restoring atom style atomic from restart
  orthogonal box = (-0.00700293 -0.0121294 -0.011124) to (8.857 15.3408 14.0691)
  pair style eam/fs stores no restart info
  108 atoms
  read_restart CPU = 0.0001261 secs

Reading from restart file ref.restart.3800

neighbor 2.0 bin
neigh_modify every 1 delay 0 check yes

# ---------- Define Interatomic Potential ---------------------
pair_style adp
pair_coeff * * Ti.adp Ti

compute apE all pe/atom

dump Dumploop all custom 1 ecoh1000/dump_files/adpDumploop.3800.txt id x y z vx vy vz fx fy fz c_apE
dump_modify Dumploop sort id  #pbc yes

run 0
Unused restart file global fix info:
  fix style: npt, fix ID: 1
  update every 1 steps, delay 0 steps, check yes
Loop time of 6.93e-07 on 1 procs for 0 steps with 108 atoms

#append adpDump.txt with current snapshot of adpDumploop.txt
shell cat ecoh1000/dump_files/adpDumploop.3800.txt >> ecoh1000/dump_files/adpDump.txt

shell rm ecoh1000/dump_files/adpDumploop.3800.txt

clear

next        a
jump        SELF loop

variable    loopEnd equal (1000/100)*4
variable    loopExit equal 1000*4
variable    a loop 40

variable    aScaled equal 39*100

timestep = 3900

# ---------- Create Atoms ------------------------------
read_restart ecoh1000/restart_files/ref.restart.3900
  restoring atom style atomic from restart
  orthogonal box = (-0.00539944 -0.0093521 -0.00857687) to (8.8554 15.338 14.0666)
  pair style eam/fs stores no restart info
  108 atoms
  read_restart CPU = 0.000118245 secs

Reading from restart file ref.restart.3900

neighbor 2.0 bin
neigh_modify every 1 delay 0 check yes

# ---------- Define Interatomic Potential ---------------------
pair_style adp
pair_coeff * * Ti.adp Ti

compute apE all pe/atom

dump Dumploop all custom 1 ecoh1000/dump_files/adpDumploop.3900.txt id x y z vx vy vz fx fy fz c_apE
dump_modify Dumploop sort id  #pbc yes

run 0
Unused restart file global fix info:
  fix style: npt, fix ID: 1
  update every 1 steps, delay 0 steps, check yes
Loop time of 7.01e-07 on 1 procs for 0 steps with 108 atoms

#append adpDump.txt with current snapshot of adpDumploop.txt
shell cat ecoh1000/dump_files/adpDumploop.3900.txt >> ecoh1000/dump_files/adpDump.txt

shell rm ecoh1000/dump_files/adpDumploop.3900.txt

clear

next        a
jump        SELF loop

variable    loopEnd equal (1000/100)*4
variable    loopExit equal 1000*4
variable    a loop 40

variable    aScaled equal 40*100

timestep = 4000

# ---------- Create Atoms ------------------------------
read_restart ecoh1000/restart_files/ref.restart.4000
  restoring atom style atomic from restart
  orthogonal box = (-0.00977641 -0.0169332 -0.0155296) to (8.85978 15.3456 14.0735)
  pair style eam/fs stores no restart info
  108 atoms
  read_restart CPU = 0.000109736 secs

Reading from restart file ref.restart.4000

neighbor 2.0 bin
neigh_modify every 1 delay 0 check yes

# ---------- Define Interatomic Potential ---------------------
pair_style adp
pair_coeff * * Ti.adp Ti

compute apE all pe/atom

dump Dumploop all custom 1 ecoh1000/dump_files/adpDumploop.4000.txt id x y z vx vy vz fx fy fz c_apE
dump_modify Dumploop sort id  #pbc yes

run 0
Unused restart file global fix info:
  fix style: npt, fix ID: 1
  update every 1 steps, delay 0 steps, check yes
Loop time of 6.51e-07 on 1 procs for 0 steps with 108 atoms

#append adpDump.txt with current snapshot of adpDumploop.txt
shell cat ecoh1000/dump_files/adpDumploop.4000.txt >> ecoh1000/dump_files/adpDump.txt

shell rm ecoh1000/dump_files/adpDumploop.4000.txt

clear

next        a
jump        SELF loop
label       break
variable    a delete

#----------Call Python script to compare Dump files---------
print "jumping back to main script"
jumping back to main script
jump in.base compareData

variable dumpPath string ecoh1000/dump_files/
variable postPath string ecoh1000/post_process/

Lammps dump location: ecoh1000/dump_files/

#No good way to embedd a shell if within a Lammps if, so using a one-line shell if statement.
shell if cmp -s -- ecoh1000/dump_files//refDump.txt ecoh1000/dump_files//adpDump.txt; then echo ecoh1000/dump_files//refDump.txt " and " ecoh1000/dump_files//adpDump.txt " contain identical data, which is unexpected." ; else echo ecoh1000/dump_files//refDump.txt " and " ecoh1000/dump_files//adpDump.txt" differ, which is expected." ; fi

print "Leaving Lammps script. Beginning data ANN pre-processing with Python."
Leaving Lammps script. Beginning data ANN pre-processing with Python.
Python data files will be created in: ecoh1000/post_process/.
shell which python3
shell python3 --version
shell python3 eval.py ecoh1000/dump_files/ ecoh1000/post_process/ adp
